/*--------------------------------*- C++ -*----------------------------------*\
| =========                 |                                                 |
| \\      /  F ield         | OpenFOAM: The Open Source CFD Toolbox           |
|  \\    /   O peration     | Version:  4.0                                   |
|   \\  /    A nd           | Web:      www.OpenFOAM.org                      |
|    \\/     M anipulation  |                                                 |
\*---------------------------------------------------------------------------*/
FoamFile
{
    version     2.0;
    format      binary;
    class       polyBoundaryMesh;
    location    "constant/polyMesh";
    object      boundary;
}
// * * * * * * * * * * * * * * * * * * * * * * * * * * * * * * * * * * * * * //

4
(
    inlet1
    {
        type            patch;
        inGroups        1(meshedPatches);
        nFaces          504;
        startFace       118700;
    }
    inlet2
    {
        type            patch;
        inGroups        1(meshedPatches);
        nFaces          110;
        startFace       119204;
    }
    outlet
    {
        type            patch;
        inGroups        1(meshedPatches);
        nFaces          256;
        startFace       119314;
    }
    pipewall
    {
        type            patch;
        inGroups        1(meshedPatches);
        nFaces          16384;
        startFace       119570;
    }
)

// ************************************************************************* //
