/*--------------------------------*- C++ -*----------------------------------*\
| =========                 |                                                 |
| \\      /  F ield         | OpenFOAM: The Open Source CFD Toolbox           |
|  \\    /   O peration     | Version:  4.0                                   |
|   \\  /    A nd           | Web:      www.OpenFOAM.org                      |
|    \\/     M anipulation  |                                                 |
\*---------------------------------------------------------------------------*/
FoamFile
{
    version     2.0;
    format      binary;
    class       polyBoundaryMesh;
    location    "3/polyMesh";
    object      boundary;
}
// * * * * * * * * * * * * * * * * * * * * * * * * * * * * * * * * * * * * * //

73
(
    frontAndBack
    {
        type            patch;
        nFaces          252;
        startFace       531853;
    }
    inlet
    {
        type            patch;
        nFaces          0;
        startFace       532105;
    }
    outlet
    {
        type            patch;
        nFaces          72;
        startFace       532105;
    }
    lowerWall
    {
        type            wall;
        inGroups        1(wall);
        nFaces          3708;
        startFace       532177;
    }
    upperWall
    {
        type            patch;
        nFaces          112;
        startFace       535885;
    }
    motorBike_frt-fairing:001%1
    {
        type            wall;
        inGroups        
2
(
motorBikeGroup
wall
)
;
        nFaces          0;
        startFace       535997;
    }
    motorBike_windshield:002%2
    {
        type            wall;
        inGroups        
2
(
motorBikeGroup
wall
)
;
        nFaces          0;
        startFace       535997;
    }
    motorBike_rr-wh-rim:005%5
    {
        type            wall;
        inGroups        
2
(
motorBikeGroup
wall
)
;
        nFaces          137;
        startFace       535997;
    }
    motorBike_rr-wh-rim:010%10
    {
        type            wall;
        inGroups        
2
(
motorBikeGroup
wall
)
;
        nFaces          350;
        startFace       536134;
    }
    motorBike_fr-wh-rim:011%11
    {
        type            wall;
        inGroups        
2
(
motorBikeGroup
wall
)
;
        nFaces          0;
        startFace       536484;
    }
    motorBike_fr-wh-brake-disk:012%12
    {
        type            wall;
        inGroups        
2
(
motorBikeGroup
wall
)
;
        nFaces          0;
        startFace       536484;
    }
    motorBike_frame:016-shadow%13
    {
        type            wall;
        inGroups        
2
(
motorBikeGroup
wall
)
;
        nFaces          0;
        startFace       536484;
    }
    motorBike_rear-susp:014%14
    {
        type            wall;
        inGroups        
2
(
motorBikeGroup
wall
)
;
        nFaces          26;
        startFace       536484;
    }
    motorBike_rear-susp:014-shadow%15
    {
        type            wall;
        inGroups        
2
(
motorBikeGroup
wall
)
;
        nFaces          23;
        startFace       536510;
    }
    motorBike_frame:016%16
    {
        type            wall;
        inGroups        
2
(
motorBikeGroup
wall
)
;
        nFaces          0;
        startFace       536533;
    }
    motorBike_rr-wh-rim:005-shadow%17
    {
        type            wall;
        inGroups        
2
(
motorBikeGroup
wall
)
;
        nFaces          54;
        startFace       536533;
    }
    motorBike_rr-wh-chain-hub:022%22
    {
        type            wall;
        inGroups        
2
(
motorBikeGroup
wall
)
;
        nFaces          132;
        startFace       536587;
    }
    motorBike_rearseat%24
    {
        type            wall;
        inGroups        
2
(
motorBikeGroup
wall
)
;
        nFaces          421;
        startFace       536719;
    }
    motorBike_frt-fairing%25
    {
        type            wall;
        inGroups        
2
(
motorBikeGroup
wall
)
;
        nFaces          0;
        startFace       537140;
    }
    motorBike_windshield%26
    {
        type            wall;
        inGroups        
2
(
motorBikeGroup
wall
)
;
        nFaces          0;
        startFace       537140;
    }
    motorBike_headlights%27
    {
        type            wall;
        inGroups        
2
(
motorBikeGroup
wall
)
;
        nFaces          0;
        startFace       537140;
    }
    motorBike_driversseat%28
    {
        type            wall;
        inGroups        
2
(
motorBikeGroup
wall
)
;
        nFaces          189;
        startFace       537140;
    }
    motorBike_rear-body%29
    {
        type            wall;
        inGroups        
2
(
motorBikeGroup
wall
)
;
        nFaces          1807;
        startFace       537329;
    }
    motorBike_fuel-tank%30
    {
        type            wall;
        inGroups        
2
(
motorBikeGroup
wall
)
;
        nFaces          0;
        startFace       539136;
    }
    motorBike_exhaust%31
    {
        type            wall;
        inGroups        
2
(
motorBikeGroup
wall
)
;
        nFaces          1075;
        startFace       539136;
    }
    motorBike_rr-wh-rim%32
    {
        type            wall;
        inGroups        
2
(
motorBikeGroup
wall
)
;
        nFaces          1373;
        startFace       540211;
    }
    motorBike_fr-mud-guard%33
    {
        type            wall;
        inGroups        
2
(
motorBikeGroup
wall
)
;
        nFaces          0;
        startFace       541584;
    }
    motorBike_fr-wh-rim%34
    {
        type            wall;
        inGroups        
2
(
motorBikeGroup
wall
)
;
        nFaces          0;
        startFace       541584;
    }
    motorBike_fr-wh-brake-disk%35
    {
        type            wall;
        inGroups        
2
(
motorBikeGroup
wall
)
;
        nFaces          0;
        startFace       541584;
    }
    motorBike_fr-brake-caliper%36
    {
        type            wall;
        inGroups        
2
(
motorBikeGroup
wall
)
;
        nFaces          0;
        startFace       541584;
    }
    motorBike_fr-wh-tyre%37
    {
        type            wall;
        inGroups        
2
(
motorBikeGroup
wall
)
;
        nFaces          0;
        startFace       541584;
    }
    motorBike_hbars%38
    {
        type            wall;
        inGroups        
2
(
motorBikeGroup
wall
)
;
        nFaces          0;
        startFace       541584;
    }
    motorBike_fr-forks%39
    {
        type            wall;
        inGroups        
2
(
motorBikeGroup
wall
)
;
        nFaces          0;
        startFace       541584;
    }
    motorBike_chain%40
    {
        type            wall;
        inGroups        
2
(
motorBikeGroup
wall
)
;
        nFaces          279;
        startFace       541584;
    }
    motorBike_rr-wh-tyre%41
    {
        type            wall;
        inGroups        
2
(
motorBikeGroup
wall
)
;
        nFaces          1843;
        startFace       541863;
    }
    motorBike_square-dial%42
    {
        type            wall;
        inGroups        
2
(
motorBikeGroup
wall
)
;
        nFaces          0;
        startFace       543706;
    }
    motorBike_round-dial%43
    {
        type            wall;
        inGroups        
2
(
motorBikeGroup
wall
)
;
        nFaces          0;
        startFace       543706;
    }
    motorBike_dial-holder%44
    {
        type            wall;
        inGroups        
2
(
motorBikeGroup
wall
)
;
        nFaces          0;
        startFace       543706;
    }
    motorBike_rear-susp%45
    {
        type            wall;
        inGroups        
2
(
motorBikeGroup
wall
)
;
        nFaces          909;
        startFace       543706;
    }
    motorBike_rear-brake-lights%46
    {
        type            wall;
        inGroups        
2
(
motorBikeGroup
wall
)
;
        nFaces          54;
        startFace       544615;
    }
    motorBike_rear-light-bracket%47
    {
        type            wall;
        inGroups        
2
(
motorBikeGroup
wall
)
;
        nFaces          157;
        startFace       544669;
    }
    motorBike_frame%48
    {
        type            wall;
        inGroups        
2
(
motorBikeGroup
wall
)
;
        nFaces          13;
        startFace       544826;
    }
    motorBike_rear-mud-guard%49
    {
        type            wall;
        inGroups        
2
(
motorBikeGroup
wall
)
;
        nFaces          660;
        startFace       544839;
    }
    motorBike_rear-susp-spring-damp%50
    {
        type            wall;
        inGroups        
2
(
motorBikeGroup
wall
)
;
        nFaces          0;
        startFace       545499;
    }
    motorBike_fairing-inner-plate%51
    {
        type            wall;
        inGroups        
2
(
motorBikeGroup
wall
)
;
        nFaces          0;
        startFace       545499;
    }
    motorBike_clutch-housing%52
    {
        type            wall;
        inGroups        
2
(
motorBikeGroup
wall
)
;
        nFaces          0;
        startFace       545499;
    }
    motorBike_radiator%53
    {
        type            wall;
        inGroups        
2
(
motorBikeGroup
wall
)
;
        nFaces          0;
        startFace       545499;
    }
    motorBike_water-pipe%54
    {
        type            wall;
        inGroups        
2
(
motorBikeGroup
wall
)
;
        nFaces          0;
        startFace       545499;
    }
    motorBike_water-pump%55
    {
        type            wall;
        inGroups        
2
(
motorBikeGroup
wall
)
;
        nFaces          0;
        startFace       545499;
    }
    motorBike_engine%56
    {
        type            wall;
        inGroups        
2
(
motorBikeGroup
wall
)
;
        nFaces          0;
        startFace       545499;
    }
    motorBike_rear-shock-link%57
    {
        type            wall;
        inGroups        
2
(
motorBikeGroup
wall
)
;
        nFaces          0;
        startFace       545499;
    }
    motorBike_rear-brake-fluid-pot-bracket%58
    {
        type            wall;
        inGroups        
2
(
motorBikeGroup
wall
)
;
        nFaces          9;
        startFace       545499;
    }
    motorBike_rear-brake-fluid-pot%59
    {
        type            wall;
        inGroups        
2
(
motorBikeGroup
wall
)
;
        nFaces          0;
        startFace       545508;
    }
    motorBike_footpeg%60
    {
        type            wall;
        inGroups        
2
(
motorBikeGroup
wall
)
;
        nFaces          0;
        startFace       545508;
    }
    motorBike_rr-wh-chain-hub%61
    {
        type            wall;
        inGroups        
2
(
motorBikeGroup
wall
)
;
        nFaces          124;
        startFace       545508;
    }
    motorBike_rear-brake-caliper%62
    {
        type            wall;
        inGroups        
2
(
motorBikeGroup
wall
)
;
        nFaces          144;
        startFace       545632;
    }
    motorBike_rider-helmet%65
    {
        type            wall;
        inGroups        
2
(
motorBikeGroup
wall
)
;
        nFaces          0;
        startFace       545776;
    }
    motorBike_rider-visor%66
    {
        type            wall;
        inGroups        
2
(
motorBikeGroup
wall
)
;
        nFaces          0;
        startFace       545776;
    }
    motorBike_rider-boots%67
    {
        type            wall;
        inGroups        
2
(
motorBikeGroup
wall
)
;
        nFaces          214;
        startFace       545776;
    }
    motorBike_rider-gloves%68
    {
        type            wall;
        inGroups        
2
(
motorBikeGroup
wall
)
;
        nFaces          0;
        startFace       545990;
    }
    motorBike_rider-body%69
    {
        type            wall;
        inGroups        
2
(
motorBikeGroup
wall
)
;
        nFaces          461;
        startFace       545990;
    }
    motorBike_frame:0%70
    {
        type            wall;
        inGroups        
2
(
motorBikeGroup
wall
)
;
        nFaces          0;
        startFace       546451;
    }
    motorBike_frt-fairing:001-shadow%74
    {
        type            wall;
        inGroups        
2
(
motorBikeGroup
wall
)
;
        nFaces          0;
        startFace       546451;
    }
    motorBike_windshield-shadow%75
    {
        type            wall;
        inGroups        
2
(
motorBikeGroup
wall
)
;
        nFaces          0;
        startFace       546451;
    }
    motorBike_fr-mud-guard-shadow%81
    {
        type            wall;
        inGroups        
2
(
motorBikeGroup
wall
)
;
        nFaces          0;
        startFace       546451;
    }
    motorBike_fr-wh-brake-disk-shadow%83
    {
        type            wall;
        inGroups        
2
(
motorBikeGroup
wall
)
;
        nFaces          0;
        startFace       546451;
    }
    motorBike_rear-mud-guard-shadow%84
    {
        type            wall;
        inGroups        
2
(
motorBikeGroup
wall
)
;
        nFaces          408;
        startFace       546451;
    }
    motorBike_rear-susp-spring-damp-shadow%85
    {
        type            wall;
        inGroups        
2
(
motorBikeGroup
wall
)
;
        nFaces          0;
        startFace       546859;
    }
    motorBike_radiator-shadow%86
    {
        type            wall;
        inGroups        
2
(
motorBikeGroup
wall
)
;
        nFaces          0;
        startFace       546859;
    }
    motorBike_rear-shock-link-shadow%87
    {
        type            wall;
        inGroups        
2
(
motorBikeGroup
wall
)
;
        nFaces          0;
        startFace       546859;
    }
    motorBike_rear-brake-fluid-pot-bracket-shadow%88
    {
        type            wall;
        inGroups        
2
(
motorBikeGroup
wall
)
;
        nFaces          10;
        startFace       546859;
    }
    motorBike_rr-wh-chain-hub-shadow%89
    {
        type            wall;
        inGroups        
2
(
motorBikeGroup
wall
)
;
        nFaces          62;
        startFace       546869;
    }
    procBoundary1to0
    {
        type            processor;
        inGroups        1(processor);
        nFaces          3369;
        startFace       546931;
        matchTolerance  0.0001;
        transform       unknown;
        myProcNo        1;
        neighbProcNo    0;
    }
)

// ************************************************************************* //
