/*--------------------------------*- C++ -*----------------------------------*\
| =========                 |                                                 |
| \\      /  F ield         | OpenFOAM: The Open Source CFD Toolbox           |
|  \\    /   O peration     | Version:  4.0                                   |
|   \\  /    A nd           | Web:      www.OpenFOAM.org                      |
|    \\/     M anipulation  |                                                 |
\*---------------------------------------------------------------------------*/
FoamFile
{
    version     2.0;
    format      binary;
    class       polyBoundaryMesh;
    location    "1/polyMesh";
    object      boundary;
}
// * * * * * * * * * * * * * * * * * * * * * * * * * * * * * * * * * * * * * //

73
(
    frontAndBack
    {
        type            patch;
        nFaces          96;
        startFace       478976;
    }
    inlet
    {
        type            patch;
        nFaces          64;
        startFace       479072;
    }
    outlet
    {
        type            patch;
        nFaces          0;
        startFace       479136;
    }
    lowerWall
    {
        type            wall;
        inGroups        1(wall);
        nFaces          1660;
        startFace       479136;
    }
    upperWall
    {
        type            patch;
        nFaces          48;
        startFace       480796;
    }
    motorBike_frt-fairing:001%1
    {
        type            wall;
        inGroups        
2
(
motorBikeGroup
wall
)
;
        nFaces          5566;
        startFace       480844;
    }
    motorBike_windshield:002%2
    {
        type            wall;
        inGroups        
2
(
motorBikeGroup
wall
)
;
        nFaces          91;
        startFace       486410;
    }
    motorBike_rr-wh-rim:005%5
    {
        type            wall;
        inGroups        
2
(
motorBikeGroup
wall
)
;
        nFaces          0;
        startFace       486501;
    }
    motorBike_rr-wh-rim:010%10
    {
        type            wall;
        inGroups        
2
(
motorBikeGroup
wall
)
;
        nFaces          0;
        startFace       486501;
    }
    motorBike_fr-wh-rim:011%11
    {
        type            wall;
        inGroups        
2
(
motorBikeGroup
wall
)
;
        nFaces          559;
        startFace       486501;
    }
    motorBike_fr-wh-brake-disk:012%12
    {
        type            wall;
        inGroups        
2
(
motorBikeGroup
wall
)
;
        nFaces          60;
        startFace       487060;
    }
    motorBike_frame:016-shadow%13
    {
        type            wall;
        inGroups        
2
(
motorBikeGroup
wall
)
;
        nFaces          110;
        startFace       487120;
    }
    motorBike_rear-susp:014%14
    {
        type            wall;
        inGroups        
2
(
motorBikeGroup
wall
)
;
        nFaces          749;
        startFace       487230;
    }
    motorBike_rear-susp:014-shadow%15
    {
        type            wall;
        inGroups        
2
(
motorBikeGroup
wall
)
;
        nFaces          778;
        startFace       487979;
    }
    motorBike_frame:016%16
    {
        type            wall;
        inGroups        
2
(
motorBikeGroup
wall
)
;
        nFaces          103;
        startFace       488757;
    }
    motorBike_rr-wh-rim:005-shadow%17
    {
        type            wall;
        inGroups        
2
(
motorBikeGroup
wall
)
;
        nFaces          0;
        startFace       488860;
    }
    motorBike_rr-wh-chain-hub:022%22
    {
        type            wall;
        inGroups        
2
(
motorBikeGroup
wall
)
;
        nFaces          0;
        startFace       488860;
    }
    motorBike_rearseat%24
    {
        type            wall;
        inGroups        
2
(
motorBikeGroup
wall
)
;
        nFaces          0;
        startFace       488860;
    }
    motorBike_frt-fairing%25
    {
        type            wall;
        inGroups        
2
(
motorBikeGroup
wall
)
;
        nFaces          932;
        startFace       488860;
    }
    motorBike_windshield%26
    {
        type            wall;
        inGroups        
2
(
motorBikeGroup
wall
)
;
        nFaces          480;
        startFace       489792;
    }
    motorBike_headlights%27
    {
        type            wall;
        inGroups        
2
(
motorBikeGroup
wall
)
;
        nFaces          283;
        startFace       490272;
    }
    motorBike_driversseat%28
    {
        type            wall;
        inGroups        
2
(
motorBikeGroup
wall
)
;
        nFaces          250;
        startFace       490555;
    }
    motorBike_rear-body%29
    {
        type            wall;
        inGroups        
2
(
motorBikeGroup
wall
)
;
        nFaces          516;
        startFace       490805;
    }
    motorBike_fuel-tank%30
    {
        type            wall;
        inGroups        
2
(
motorBikeGroup
wall
)
;
        nFaces          1580;
        startFace       491321;
    }
    motorBike_exhaust%31
    {
        type            wall;
        inGroups        
2
(
motorBikeGroup
wall
)
;
        nFaces          1769;
        startFace       492901;
    }
    motorBike_rr-wh-rim%32
    {
        type            wall;
        inGroups        
2
(
motorBikeGroup
wall
)
;
        nFaces          0;
        startFace       494670;
    }
    motorBike_fr-mud-guard%33
    {
        type            wall;
        inGroups        
2
(
motorBikeGroup
wall
)
;
        nFaces          605;
        startFace       494670;
    }
    motorBike_fr-wh-rim%34
    {
        type            wall;
        inGroups        
2
(
motorBikeGroup
wall
)
;
        nFaces          953;
        startFace       495275;
    }
    motorBike_fr-wh-brake-disk%35
    {
        type            wall;
        inGroups        
2
(
motorBikeGroup
wall
)
;
        nFaces          316;
        startFace       496228;
    }
    motorBike_fr-brake-caliper%36
    {
        type            wall;
        inGroups        
2
(
motorBikeGroup
wall
)
;
        nFaces          199;
        startFace       496544;
    }
    motorBike_fr-wh-tyre%37
    {
        type            wall;
        inGroups        
2
(
motorBikeGroup
wall
)
;
        nFaces          1882;
        startFace       496743;
    }
    motorBike_hbars%38
    {
        type            wall;
        inGroups        
2
(
motorBikeGroup
wall
)
;
        nFaces          755;
        startFace       498625;
    }
    motorBike_fr-forks%39
    {
        type            wall;
        inGroups        
2
(
motorBikeGroup
wall
)
;
        nFaces          1592;
        startFace       499380;
    }
    motorBike_chain%40
    {
        type            wall;
        inGroups        
2
(
motorBikeGroup
wall
)
;
        nFaces          209;
        startFace       500972;
    }
    motorBike_rr-wh-tyre%41
    {
        type            wall;
        inGroups        
2
(
motorBikeGroup
wall
)
;
        nFaces          272;
        startFace       501181;
    }
    motorBike_square-dial%42
    {
        type            wall;
        inGroups        
2
(
motorBikeGroup
wall
)
;
        nFaces          9;
        startFace       501453;
    }
    motorBike_round-dial%43
    {
        type            wall;
        inGroups        
2
(
motorBikeGroup
wall
)
;
        nFaces          20;
        startFace       501462;
    }
    motorBike_dial-holder%44
    {
        type            wall;
        inGroups        
2
(
motorBikeGroup
wall
)
;
        nFaces          127;
        startFace       501482;
    }
    motorBike_rear-susp%45
    {
        type            wall;
        inGroups        
2
(
motorBikeGroup
wall
)
;
        nFaces          1082;
        startFace       501609;
    }
    motorBike_rear-brake-lights%46
    {
        type            wall;
        inGroups        
2
(
motorBikeGroup
wall
)
;
        nFaces          0;
        startFace       502691;
    }
    motorBike_rear-light-bracket%47
    {
        type            wall;
        inGroups        
2
(
motorBikeGroup
wall
)
;
        nFaces          0;
        startFace       502691;
    }
    motorBike_frame%48
    {
        type            wall;
        inGroups        
2
(
motorBikeGroup
wall
)
;
        nFaces          2894;
        startFace       502691;
    }
    motorBike_rear-mud-guard%49
    {
        type            wall;
        inGroups        
2
(
motorBikeGroup
wall
)
;
        nFaces          52;
        startFace       505585;
    }
    motorBike_rear-susp-spring-damp%50
    {
        type            wall;
        inGroups        
2
(
motorBikeGroup
wall
)
;
        nFaces          67;
        startFace       505637;
    }
    motorBike_fairing-inner-plate%51
    {
        type            wall;
        inGroups        
2
(
motorBikeGroup
wall
)
;
        nFaces          536;
        startFace       505704;
    }
    motorBike_clutch-housing%52
    {
        type            wall;
        inGroups        
2
(
motorBikeGroup
wall
)
;
        nFaces          1117;
        startFace       506240;
    }
    motorBike_radiator%53
    {
        type            wall;
        inGroups        
2
(
motorBikeGroup
wall
)
;
        nFaces          41;
        startFace       507357;
    }
    motorBike_water-pipe%54
    {
        type            wall;
        inGroups        
2
(
motorBikeGroup
wall
)
;
        nFaces          113;
        startFace       507398;
    }
    motorBike_water-pump%55
    {
        type            wall;
        inGroups        
2
(
motorBikeGroup
wall
)
;
        nFaces          97;
        startFace       507511;
    }
    motorBike_engine%56
    {
        type            wall;
        inGroups        
2
(
motorBikeGroup
wall
)
;
        nFaces          2913;
        startFace       507608;
    }
    motorBike_rear-shock-link%57
    {
        type            wall;
        inGroups        
2
(
motorBikeGroup
wall
)
;
        nFaces          19;
        startFace       510521;
    }
    motorBike_rear-brake-fluid-pot-bracket%58
    {
        type            wall;
        inGroups        
2
(
motorBikeGroup
wall
)
;
        nFaces          34;
        startFace       510540;
    }
    motorBike_rear-brake-fluid-pot%59
    {
        type            wall;
        inGroups        
2
(
motorBikeGroup
wall
)
;
        nFaces          57;
        startFace       510574;
    }
    motorBike_footpeg%60
    {
        type            wall;
        inGroups        
2
(
motorBikeGroup
wall
)
;
        nFaces          106;
        startFace       510631;
    }
    motorBike_rr-wh-chain-hub%61
    {
        type            wall;
        inGroups        
2
(
motorBikeGroup
wall
)
;
        nFaces          0;
        startFace       510737;
    }
    motorBike_rear-brake-caliper%62
    {
        type            wall;
        inGroups        
2
(
motorBikeGroup
wall
)
;
        nFaces          0;
        startFace       510737;
    }
    motorBike_rider-helmet%65
    {
        type            wall;
        inGroups        
2
(
motorBikeGroup
wall
)
;
        nFaces          1230;
        startFace       510737;
    }
    motorBike_rider-visor%66
    {
        type            wall;
        inGroups        
2
(
motorBikeGroup
wall
)
;
        nFaces          301;
        startFace       511967;
    }
    motorBike_rider-boots%67
    {
        type            wall;
        inGroups        
2
(
motorBikeGroup
wall
)
;
        nFaces          1492;
        startFace       512268;
    }
    motorBike_rider-gloves%68
    {
        type            wall;
        inGroups        
2
(
motorBikeGroup
wall
)
;
        nFaces          421;
        startFace       513760;
    }
    motorBike_rider-body%69
    {
        type            wall;
        inGroups        
2
(
motorBikeGroup
wall
)
;
        nFaces          6624;
        startFace       514181;
    }
    motorBike_frame:0%70
    {
        type            wall;
        inGroups        
2
(
motorBikeGroup
wall
)
;
        nFaces          53;
        startFace       520805;
    }
    motorBike_frt-fairing:001-shadow%74
    {
        type            wall;
        inGroups        
2
(
motorBikeGroup
wall
)
;
        nFaces          5499;
        startFace       520858;
    }
    motorBike_windshield-shadow%75
    {
        type            wall;
        inGroups        
2
(
motorBikeGroup
wall
)
;
        nFaces          455;
        startFace       526357;
    }
    motorBike_fr-mud-guard-shadow%81
    {
        type            wall;
        inGroups        
2
(
motorBikeGroup
wall
)
;
        nFaces          624;
        startFace       526812;
    }
    motorBike_fr-wh-brake-disk-shadow%83
    {
        type            wall;
        inGroups        
2
(
motorBikeGroup
wall
)
;
        nFaces          320;
        startFace       527436;
    }
    motorBike_rear-mud-guard-shadow%84
    {
        type            wall;
        inGroups        
2
(
motorBikeGroup
wall
)
;
        nFaces          43;
        startFace       527756;
    }
    motorBike_rear-susp-spring-damp-shadow%85
    {
        type            wall;
        inGroups        
2
(
motorBikeGroup
wall
)
;
        nFaces          59;
        startFace       527799;
    }
    motorBike_radiator-shadow%86
    {
        type            wall;
        inGroups        
2
(
motorBikeGroup
wall
)
;
        nFaces          33;
        startFace       527858;
    }
    motorBike_rear-shock-link-shadow%87
    {
        type            wall;
        inGroups        
2
(
motorBikeGroup
wall
)
;
        nFaces          15;
        startFace       527891;
    }
    motorBike_rear-brake-fluid-pot-bracket-shadow%88
    {
        type            wall;
        inGroups        
2
(
motorBikeGroup
wall
)
;
        nFaces          35;
        startFace       527906;
    }
    motorBike_rr-wh-chain-hub-shadow%89
    {
        type            wall;
        inGroups        
2
(
motorBikeGroup
wall
)
;
        nFaces          0;
        startFace       527941;
    }
    procBoundary0to1
    {
        type            processor;
        inGroups        1(processor);
        nFaces          2822;
        startFace       527941;
        matchTolerance  0.0001;
        transform       unknown;
        myProcNo        0;
        neighbProcNo    1;
    }
)

// ************************************************************************* //
