/*--------------------------------*- C++ -*----------------------------------*\
| =========                 |                                                 |
| \\      /  F ield         | OpenFOAM: The Open Source CFD Toolbox           |
|  \\    /   O peration     | Version:  4.0                                   |
|   \\  /    A nd           | Web:      www.OpenFOAM.org                      |
|    \\/     M anipulation  |                                                 |
\*---------------------------------------------------------------------------*/
FoamFile
{
    version     2.0;
    format      binary;
    class       polyBoundaryMesh;
    location    "constant/polyMesh";
    object      boundary;
}
// * * * * * * * * * * * * * * * * * * * * * * * * * * * * * * * * * * * * * //

6
(
    frontAndBack
    {
        type            patch;
        nFaces          160;
        startFace       1696;
    }
    inlet
    {
        type            patch;
        nFaces          0;
        startFace       1856;
    }
    outlet
    {
        type            patch;
        nFaces          64;
        startFace       1856;
    }
    lowerWall
    {
        type            wall;
        inGroups        1(wall);
        nFaces          80;
        startFace       1920;
    }
    upperWall
    {
        type            patch;
        nFaces          80;
        startFace       2000;
    }
    procBoundary1to0
    {
        type            processor;
        inGroups        1(processor);
        nFaces          64;
        startFace       2080;
        matchTolerance  0.0001;
        transform       unknown;
        myProcNo        1;
        neighbProcNo    0;
    }
)

// ************************************************************************* //
